198
#
H     4.2861497    2.9397432    5.9704473 
C     3.3024545    2.4317887    6.0273462 
N     3.1205120    1.3484844    6.8693901 
H     3.7926376    0.9031603    7.5094737 
C     1.8435633    0.9355033    6.7903814 
H     1.4320136    0.0921984    7.3385785 
N     1.1736887    1.6964947    5.9263984 
C     2.0662154    2.6423702    5.4376066 
H     1.7576726    3.3862173    4.7048703 
H     0.3240985    3.6343645   10.9318843 
C     0.3713505    2.6973486   10.3120379 
H     0.6245741    3.0306789    9.2868190 
C     1.4608676    1.7256044   10.7834370 
H     2.3587217    2.2527339   11.1178379 
H     1.1123319    1.0932058   11.6196973 
H     1.7597762    1.0661743    9.9538103 
C    -1.0088947    2.0176851   10.2476558 
H    -1.3151002    1.6772832   11.2566660 
H    -1.7757670    2.7403021    9.9116569 
C    -1.0242071    0.8191952    9.3012617 
H    -0.7235967    1.1249775    8.2858544 
H    -0.3379746    0.0241787    9.6362748 
H    -2.0263031    0.3712261    9.2469530 
H    -1.7967813    8.3873577    6.8233767 
C    -2.5696988    7.5776260    6.6671326 
O    -2.7631528    7.0817715    5.5538130 
N    -3.2578415    7.2624500    7.7910640 
H    -2.8444193    7.5740751    8.6861262 
C    -4.3416725    6.3084819    7.8397450 
H    -4.6415947    6.0997830    6.8025478 
C    -3.9256591    4.9670068    8.5156726 
H    -3.6653634    5.1746992    9.5703868 
H    -4.7839556    4.2785498    8.5091929 
C    -2.7871027    4.2953875    7.8286078 
N    -1.4815360    4.7627035    7.9003670 
H    -1.1901591    5.5854108    8.4406412 
C    -0.6908369    3.9437195    7.1601753 
H     0.3845771    4.0719961    7.0525097 
N    -1.4274252    2.9711810    6.6135316 
C    -2.7373986    3.1778491    7.0155448 
H    -3.5501903    2.5086721    6.7302266 
C    -5.5217646    6.9246270    8.6170128 
O    -5.3825612    7.9658081    9.2750827 
N    -6.6519375    6.1820246    8.5413334 
H    -6.6989388    5.3568920    7.8922697 
C    -7.8706429    6.3834323    9.3155327 
H    -8.6524747    5.8227660    8.7748423 
H    -7.8176591    5.9349727   10.3449397 
H    -8.2257505    7.4423809    9.3156935 
H    -1.3824022    6.1003833    0.6280992 
C    -1.3592143    5.5065821    1.5403241 
N    -2.0300599    5.8208234    2.7051858 
H    -2.6819672    6.6063538    2.8292132 
C    -1.7138050    4.8808980    3.6374559 
H    -2.1149412    4.9034812    4.6496889 
N    -0.8611294    3.9876560    3.1323865 
C    -0.6224409    4.3753147    1.8299825 
H     0.0394591    3.8043994    1.1773449 
H   -10.5435711    8.4379532    3.3522892 
C   -10.3825552    7.9306234    4.3402510 
H   -10.6566900    6.8670124    4.2898325 
H    -9.3045840    7.9548063    4.5550688 
N   -11.1455167    8.5901707    5.3935452 
H   -11.4761176    9.5647750    5.2650177 
C   -11.5638561    7.9998607    6.5208750 
N   -11.0229722    6.8375734    6.9385180 
H   -10.2066637    6.3955865    6.4778091 
H   -11.5950151    6.2017887    7.5071156 
N   -12.5164296    8.6118349    7.2541577 
H   -13.0746975    9.3673032    6.8200430 
H   -12.8337943    8.1933465    8.1332901 
H    -9.3093297    3.4119720    4.5392551 
C    -8.4483086    3.1967352    5.2034320 
H    -8.6369973    2.2834108    5.7954809 
H    -7.5497645    2.9961669    4.5958150 
C    -8.0953264    4.3190867    6.1831294 
O    -8.7269352    5.3972771    6.2448169 
O    -7.1112351    4.0111128    6.9688159 
H   -12.0265556    1.6150854    9.0067804 
C   -10.9447818    1.7790027    9.0553870 
C   -10.2304977    2.7853424    8.4231195 
H   -10.5756320    3.5902997    7.7750400 
N    -8.8870822    2.6587842    8.7172575 
H    -8.1310000    3.1867751    8.2463360 
C    -8.6983928    1.5529342    9.5188003 
C    -7.5005812    0.9704311    9.9777791 
H    -6.5294356    1.3889379    9.7007903 
C    -7.6018417   -0.2161038   10.7097522 
H    -6.6895888   -0.7288989   11.0263231 
C    -8.8666674   -0.8025149   10.9815839 
H    -8.9050293   -1.7814203   11.4631830 
C   -10.0538152   -0.2122860   10.5367655 
H   -11.0128815   -0.7097695   10.7242239 
C    -9.9889382    0.9784218    9.7739816 
H    -7.2690756   -0.2211295    1.5167375 
C    -6.3871704   -0.0245881    2.1504828 
N    -6.4783953    0.1658828    3.5227137 
H    -7.2847725   -0.0211403    4.1532383 
C    -5.2569495    0.4868991    4.0018031 
H    -5.0602661    0.7332456    5.0515651 
N    -4.3786470    0.5219710    2.9943602 
C    -5.0597165    0.1920920    1.8335740 
H    -4.5557537    0.1401225    0.8710711 
H    -7.9931649   -3.1516237    4.9886708 
C    -8.5790598   -2.7960350    5.8638795 
H    -9.6254612   -2.6417717    5.5628047 
H    -8.5833387   -3.5901856    6.6258365 
C    -8.0955476   -1.5069904    6.5190703 
O    -7.3190494   -0.6817836    5.9884229 
N    -8.6216240   -1.3023340    7.7377823 
H    -8.3284256   -0.4870919    8.2785673 
H    -9.2212887   -1.9953926    8.2027274 
H    -3.4500334   -4.6711910    4.2425676 
C    -2.9780145   -3.7646185    3.8344308 
N    -1.6041233   -3.6472118    3.7876829 
H    -0.9427357   -4.3525972    4.1425608 
C    -1.2980071   -2.3941752    3.3551443 
H    -0.2757712   -2.0238713    3.2836536 
N    -2.4024521   -1.6963212    3.0977870 
C    -3.4603189   -2.5395186    3.4028305 
H    -4.4980688   -2.2088602    3.3448504 
H     3.1914134   -3.4211385    5.1563486 
C     2.1045407   -3.1597973    5.0237406 
H     1.8074973   -3.5924623    4.0414561 
H     1.5450154   -3.7076618    5.7970376 
O     1.8477551   -1.7658869    5.0473402 
H     1.0594110   -1.5759055    5.5996190 
H     3.2548135   -2.1766743    0.2807160 
C     2.9959182   -1.2014510    0.7357420 
C     3.4496177   -0.0035051    0.1540636 
H     4.1146187   -0.0207987   -0.7138614 
C     3.0408303    1.2323053    0.6736799 
H     3.3748810    2.1537008    0.1842378 
C     2.2194770    1.2741930    1.8094255 
H     1.8952374    2.2334091    2.2268448 
C     1.8280262    0.0819354    2.4369351 
H     1.2271276    0.1186603    3.3449039 
C     2.1988278   -1.1528790    1.8885183 
H     1.8807719   -2.0761968    2.3800619 
H    -1.9961072   -3.1935502   -2.4049788 
C    -2.8005192   -2.9593597   -1.6993661 
N    -4.1285214   -2.9144073   -2.0720478 
C    -4.7941438   -2.6545841   -0.9597071 
H    -5.8767516   -2.5717647   -0.8816839 
N    -3.9564061   -2.5355849    0.1154938 
H    -4.2179716   -2.4005289    1.0936162 
C    -2.6686975   -2.7242661   -0.3414437 
H    -1.8104900   -2.6674993    0.3261607 
H    -0.8508249    1.8207109   -1.6423489 
C    -1.3053399    1.8098423   -0.6536976 
N    -2.3482434    2.6786144   -0.3764963 
H    -2.6495962    3.4640334   -0.9807510 
C    -2.8492240    2.3705365    0.8343043 
H    -3.6412355    2.9293917    1.3273159 
N    -2.1952768    1.3167946    1.3350406 
C    -1.2215968    0.9525070    0.4236365 
H    -0.5356767    0.1273321    0.6041545 
Cu   -0.7600894    1.2910791    5.6022680 
Cu   -2.4246183    0.7474958    3.2053655 
O    -0.6745244    1.3516106    3.5697516 
O    -2.4396447    0.6737184    5.0415492 
C    -6.8539785   -4.4322820    8.4473646 
H    -7.6266630   -3.8279760    8.9343554 
H    -7.2712474   -5.0223337    7.6139589 
H    -6.3772676   -5.1141799    9.1659931 
O    -5.8807571   -3.4973517    7.9535970 
C    -4.6824944   -4.0363300    7.6599294 
O    -4.4943167   -5.2529809    7.6461649 
C    -3.6344995   -3.0413226    7.3443913 
C    -3.8695526   -1.6598862    7.2451842 
H    -4.8647974   -1.2527910    7.4308800 
C    -2.8067115   -0.7901637    6.9824744 
H    -2.9504431    0.2848292    7.0886663 
C    -1.4798800   -1.3112340    6.7296996 
O    -0.4725518   -0.5507314    6.4453322 
H    -0.7054591    2.3667225    3.4157683 
C    -1.2697182   -2.7264056    6.8405880 
H    -0.2629847   -3.1193821    6.6919741 
C    -2.3146120   -3.5528066    7.1734925 
H    -2.1640468   -4.6261434    7.3033968 
O    -7.0973199   -3.4889657   11.3516433 
H    -6.1259832   -3.3072140   11.0862659 
H    -7.2298115   -3.0761471   12.2350172 
O    -5.7278408    1.5361307    6.9116324 
H    -6.3980523    0.8295038    6.7604466 
H    -6.2259659    2.3919235    6.8502871 
O    -4.6303045   -3.1217980   10.6652926 
H    -4.1983761   -3.1692479   11.5612171 
H    -4.4885919   -2.1711504   10.3942836 
O   -10.1159503   -4.1136424   11.6057320 
H    -9.4653914   -4.8612869   11.4719132 
H    -9.8943353   -3.8446440   12.5180966 
O    -8.0789586   -5.8705960   11.2083903 
H    -8.2640289   -6.1626548   10.2959069 
H    -7.6230059   -4.9530289   11.1815248 
O    -3.9135483   -0.5723219   10.2168689 
H    -4.1275753    0.3920128   10.3137340 
H    -3.1098417   -0.7000027   10.8104367 