106
 generated by VMD
 N        22.438000       71.389000       -0.981000
 C        23.483000       71.591003       -1.978000
 C        24.538000       70.496002       -1.874000
 O        24.915001       69.887001       -2.881000
 C        24.113001       72.974998       -1.819000
 C        24.988001       73.367996       -2.967000
 N        26.332001       73.065002       -3.017000
 C        24.709000       74.035004       -4.111000
 C        26.843000       73.531998       -4.143000
 N        25.879000       74.123001       -4.824000
 H        22.375999       72.010002       -0.390000
 H        23.087999       71.542000       -2.863000
 H        23.406000       73.634003       -1.745000
 H        24.656000       72.981003       -1.016000
 H        26.768999       72.639999       -2.411000
 H        23.879999       74.371002       -4.366000
 H        27.731001       73.456001       -4.410000
 N        25.895000       70.204002      -10.984000
 C        27.013000       70.913002      -11.594000
 C        27.479000       70.155998      -12.828000
 O        27.518999       68.919998      -12.825000
 C        28.172001       71.077003      -10.605000
 C        27.805000       71.851997       -9.379000
 N        27.513000       71.244003       -8.178000
 C        27.660000       73.183998       -9.174000
 C        27.212000       72.168999       -7.282000
 N        27.291000       73.353996       -7.861000
 H        26.073000       69.385002      -10.793000
 H        26.721001       71.795998      -11.870000
 H        28.469999       70.197998      -10.323000
 H        28.896999       71.544998      -11.047000
 H        27.527000       70.397003       -8.032000
 H        27.785999       73.857002       -9.804000
 H        26.983000       72.012001       -6.394000
 N        20.257000       76.345001       -9.815000
 C        20.796000       77.417999       -8.992000
 C        19.900000       78.653999       -9.033000
 O        19.823000       79.401001       -8.047000
 C        22.221001       77.745003       -9.442000
 C        23.230000       76.726997       -9.014000
 N        23.452000       75.556000       -9.708000
 C        24.066000       76.696999       -7.949000
 C        24.389000       74.855003       -9.095000
 N        24.775999       75.524002       -8.025000
 H        20.705000       76.177002      -10.530000
 H        20.839001       77.113998       -8.072000
 H        22.240999       77.794998      -10.410000
 H        22.481001       78.598999       -9.063000
 H        23.049000       75.321999      -10.431000
 H        24.146999       77.349998       -7.292000
 H        24.718000       74.028999       -9.369000
 N        32.326000       81.303001      -13.037000
 C        31.719999       80.591003      -11.920000
 C        32.785000       80.093002      -10.953000
 O        32.715000       80.360001       -9.749000
 C        30.865999       79.428001      -12.426000
 C        30.221001       78.646004      -11.326000
 N        30.643000       77.385002      -10.964000
 C        29.194000       78.952003      -10.498000
 C        29.900000       76.945000       -9.964000
 N        29.011000       77.875999       -9.664000
 H        32.250000       80.912003      -13.799000
 H        31.139999       81.199997      -11.437000
 H        30.163000       79.778999      -12.994000
 H        31.429001       78.821999      -12.932000
 H        31.289000       76.952003      -11.332000
 H        28.700001       79.739998      -10.498000
 H        29.986000       76.119003       -9.545000
 N        34.050999       81.707001       -7.095000
 C        34.077000       80.832001       -5.926000
 C        35.459000       80.806000       -5.284000
 O        35.610001       81.071999       -4.085000
 C        33.666000       79.411003       -6.320000
 C        32.192001       79.161003       -6.259000
 N        31.455000       79.331001       -5.108000
 C        31.320999       78.727997       -7.202000
 C        30.191999       79.026001       -5.345000
 N        30.084000       78.656998       -6.609000
 H        33.938999       81.295998       -7.842000
 H        33.444000       81.160004       -5.268000
 H        33.957001       79.244003       -7.230000
 H        34.096001       78.783997       -5.718000
 H        31.768000       79.598000       -4.353000
 H        31.521000       78.523003       -8.087000
 H        29.497000       79.065002       -4.728000
 N        25.997999       83.903000       -7.063000
 C        25.041000       83.262001       -7.954000
 C        23.923000       84.197998       -8.377000
 O        23.259001       83.926003       -9.380000
 C        24.476999       81.996002       -7.310000
 C        25.322001       80.791000       -7.576000
 N        25.259001       80.092003       -8.762000
 C        26.295000       80.202003       -6.843000
 C        26.143000       79.111000       -8.740000
 N        26.785999       79.156998       -7.588000
 H        25.896999       83.714996       -6.230000
 H        25.510000       82.991997       -8.759000
 H        24.429001       82.124001       -6.349000
 H        23.591000       81.827003       -7.667000
 H        24.726000       80.266998       -9.414000
 H        26.577000       80.456001       -5.994000
 H        26.283001       78.489998       -9.418000
 Cu       25.993000       74.697998       -6.710000
 Cu       28.540001       78.217003       -7.652000
 O        27.371000       76.632004       -7.775000
 O        27.886000       75.894997       -6.633000
